ejm_31
                    3D
 Schrodinger Suite 2022-3.
 32 33  0  0  1  0            999 V2000
   -3.2903   22.5712  -29.5240 C   0  0  0  0  0  0
   -3.9192   21.7173  -28.5965 C   0  0  0  0  0  0
   -3.2025   21.1503  -27.5518 C   0  0  0  0  0  0
   -5.2582   25.0245  -31.6039 C   0  0  0  0  0  0
   -4.1053   23.0704  -30.6507 C   0  0  0  0  0  0
   -5.9452   24.4099  -32.6722 C   0  0  0  0  0  0
   -6.7996   25.1874  -33.4514 C   0  0  0  0  0  0
   -1.9269   22.8784  -29.3601 C   0  0  0  0  0  0
   -1.8593   21.4510  -27.4045 C   0  0  0  0  0  0
   -1.2252   22.3093  -28.3025 C   0  0  0  0  0  0
   -5.6128   21.4071  -28.7312 Cl  0  0  0  0  0  0
   -4.4756   22.2608  -31.5073 O   0  0  0  0  0  0
   -4.4499   24.3695  -30.6718 N   0  0  0  0  0  0
   -6.9355   26.4911  -33.2090 N   0  0  0  0  0  0
   -6.3008   27.1207  -32.2194 C   0  0  0  0  0  0
   -5.4625   26.3854  -31.3778 C   0  0  0  0  0  0
   -6.5300   28.4905  -32.1011 N   0  0  0  0  0  0
   -5.8268   29.4130  -31.4193 C   0  0  0  0  0  0
   -4.8002   29.1966  -30.7784 O   0  0  0  0  0  0
   -6.3693   30.8303  -31.4415 C   0  0  0  0  0  0
   -1.0986   23.9892  -30.4092 Cl  0  0  0  0  0  0
   -3.6932   20.4910  -26.8557 H   0  0  0  0  0  0
   -5.8817   23.3628  -32.9125 H   0  0  0  0  0  0
   -7.3629   24.7668  -34.2729 H   0  0  0  0  0  0
   -1.2990   21.0136  -26.5902 H   0  0  0  0  0  0
   -0.1903   22.5719  -28.1610 H   0  0  0  0  0  0
   -4.0754   24.9350  -29.9284 H   0  0  0  0  0  0
   -4.9657   26.8592  -30.5476 H   0  0  0  0  0  0
   -7.3939   28.7961  -32.5242 H   0  0  0  0  0  0
   -7.2408   30.9107  -32.0881 H   0  0  0  0  0  0
   -5.6119   31.5212  -31.8101 H   0  0  0  0  0  0
   -6.6529   31.1516  -30.4412 H   0  0  0  0  0  0
  1  2  2  0  0  0
  1  5  1  0  0  0
  1  8  1  0  0  0
  2  3  1  0  0  0
  2 11  1  0  0  0
  3  9  2  0  0  0
  3 22  1  0  0  0
  4  6  1  0  0  0
  4 13  1  0  0  0
  4 16  2  0  0  0
  5 12  2  0  0  0
  5 13  1  0  0  0
  6  7  2  0  0  0
  6 23  1  0  0  0
  7 14  1  0  0  0
  7 24  1  0  0  0
  8 10  2  0  0  0
  8 21  1  0  0  0
  9 10  1  0  0  0
  9 25  1  0  0  0
 10 26  1  0  0  0
 13 27  1  0  0  0
 14 15  2  0  0  0
 15 16  1  0  0  0
 15 17  1  0  0  0
 16 28  1  0  0  0
 17 18  1  0  0  0
 17 29  1  0  0  0
 18 19  2  0  0  0
 18 20  1  0  0  0
 20 30  1  0  0  0
 20 31  1  0  0  0
 20 32  1  0  0  0
M  END
> <r_exp_dg>
-9.54

$$$$
ejm_50
                    3D
 Schrodinger Suite 2022-3.
 33 34  0  0  1  0            999 V2000
   -3.2903   22.5712  -29.5240 C   0  0  0  0  0  0
   -3.9192   21.7173  -28.5965 C   0  0  0  0  0  0
   -3.2025   21.1503  -27.5518 C   0  0  0  0  0  0
   -5.2582   25.0245  -31.6039 C   0  0  0  0  0  0
   -4.1053   23.0704  -30.6507 C   0  0  0  0  0  0
   -5.9452   24.4099  -32.6722 C   0  0  0  0  0  0
   -6.7996   25.1874  -33.4514 C   0  0  0  0  0  0
   -1.9269   22.8784  -29.3601 C   0  0  0  0  0  0
   -1.8593   21.4510  -27.4045 C   0  0  0  0  0  0
   -1.2252   22.3093  -28.3025 C   0  0  0  0  0  0
   -5.6128   21.4071  -28.7312 Cl  0  0  0  0  0  0
   -4.4756   22.2608  -31.5073 O   0  0  0  0  0  0
   -4.4499   24.3695  -30.6718 N   0  0  0  0  0  0
   -6.9355   26.4911  -33.2090 N   0  0  0  0  0  0
   -6.3008   27.1207  -32.2194 C   0  0  0  0  0  0
   -5.4625   26.3854  -31.3778 C   0  0  0  0  0  0
   -6.5593   28.4830  -32.0869 N   0  0  0  0  0  0
   -5.8346   29.4343  -31.4648 C   0  0  0  0  0  0
   -4.7615   29.2252  -30.8953 O   0  0  0  0  0  0
   -6.4450   30.8541  -31.4659 C   0  0  0  0  0  0
   -1.0986   23.9892  -30.4092 Cl  0  0  0  0  0  0
   -3.6931   20.4910  -26.8557 H   0  0  0  0  0  0
   -5.8816   23.3628  -32.9125 H   0  0  0  0  0  0
   -7.3628   24.7667  -34.2730 H   0  0  0  0  0  0
   -1.2990   21.0135  -26.5902 H   0  0  0  0  0  0
   -0.1903   22.5719  -28.1610 H   0  0  0  0  0  0
   -4.0750   24.9344  -29.9282 H   0  0  0  0  0  0
   -4.9706   26.8649  -30.5473 H   0  0  0  0  0  0
   -7.4581   28.7575  -32.4588 H   0  0  0  0  0  0
   -7.2592   30.9169  -32.1868 H   0  0  0  0  0  0
   -6.8722   31.0541  -30.4872 H   0  0  0  0  0  0
   -5.4767   31.8699  -31.7388 O   0  0  0  0  0  0
   -5.8430   32.4321  -32.4465 H   0  0  0  0  0  0
  1  2  2  0  0  0
  1  5  1  0  0  0
  1  8  1  0  0  0
  2  3  1  0  0  0
  2 11  1  0  0  0
  3  9  2  0  0  0
  3 22  1  0  0  0
  4  6  1  0  0  0
  4 13  1  0  0  0
  4 16  2  0  0  0
  5 12  2  0  0  0
  5 13  1  0  0  0
  6  7  2  0  0  0
  6 23  1  0  0  0
  7 14  1  0  0  0
  7 24  1  0  0  0
  8 10  2  0  0  0
  8 21  1  0  0  0
  9 10  1  0  0  0
  9 25  1  0  0  0
 10 26  1  0  0  0
 13 27  1  0  0  0
 14 15  2  0  0  0
 15 16  1  0  0  0
 15 17  1  0  0  0
 16 28  1  0  0  0
 17 18  1  0  0  0
 17 29  1  0  0  0
 18 19  2  0  0  0
 18 20  1  0  0  0
 20 30  1  0  0  0
 20 31  1  0  0  0
 20 32  1  0  0  0
 32 33  1  0  0  0
M  END
> <r_exp_dg>
-8.98

$$$$